[TITLE]
BASIC DMA MODEL v00.03

[JUNCTIONS]
;ID              	Elev        	Demand      	Pattern         
 JT_01_001       	0           	0.00        	nd_wd_summer_break	;
 JT_0A_001       	0           	0.12        	nd_wd_summer_break	;
 JT_0A_002       	0           	0.12        	nd_wd_summer_break	;
 JT_0A_003       	0           	0.12        	nd_wd_summer_break	;
 JT_0A_004       	0           	0.12        	nd_wd_summer_break	;
 JT_0A_005       	0           	0.12        	nd_wd_summer_break	;
 JT_0A_006       	0           	0.12        	nd_wd_summer_break	;
 JT_0A_007       	0           	0.12        	nd_wd_summer_break	;
 JT_0A_008       	0           	0.12        	nd_wd_summer_break	;
 JT_0A_009       	0           	0.12        	nd_wd_summer_break	;
 JT_0A_010       	0           	0.12        	nd_wd_summer_break	;
 JT_0A_011       	0           	0.12        	nd_wd_summer_break	;
 JT_0B_001       	0           	0.12        	nd_wd_summer_break	;
 JT_0B_002       	0           	0.12        	nd_wd_summer_break	;
 JT_0B_003       	0           	0.12        	nd_wd_summer_break	;
 JT_0B_004       	0           	0.12        	nd_wd_summer_break	;
 JT_0B_005       	0           	0.12        	nd_wd_summer_break	;
 JT_0B_006       	0           	0.12        	nd_wd_summer_break	;
 JT_0B_007       	0           	0.12        	nd_wd_summer_break	;
 JT_0B_008       	0           	0.12        	nd_wd_summer_break	;
 JT_0B_009       	0           	0.12        	nd_wd_summer_break	;
 JT_0B_010       	0           	0.12        	nd_wd_summer_break	;
 JT_0B_011       	0           	0.12        	nd_wd_summer_break	;
 JT_0C_001       	0           	0.12        	nd_wd_summer_break	;
 JT_0C_002       	0           	0.12        	nd_wd_summer_break	;
 JT_0C_003       	0           	0.12        	nd_wd_summer_break	;
 JT_0C_004       	0           	0.12        	nd_wd_summer_break	;
 JT_0C_005       	0           	0.12        	nd_wd_summer_break	;
 JT_0C_006       	0           	0.12        	nd_wd_summer_break	;
 JT_0C_007       	0           	0.12        	nd_wd_summer_break	;
 JT_0C_008       	0           	0.12        	nd_wd_summer_break	;
 JT_0C_009       	0           	0.12        	nd_wd_summer_break	;
 JT_0C_010       	0           	0.12        	nd_wd_summer_break	;
 JT_0C_011       	0           	0.12        	nd_wd_summer_break	;
 JT_0D_001       	0           	0.12        	nd_wd_summer_break	;
 JT_0D_002       	0           	0.12        	nd_wd_summer_break	;
 JT_0D_003       	0           	0.12        	nd_wd_summer_break	;
 JT_0D_004       	0           	0.12        	nd_wd_summer_break	;
 JT_0D_005       	0           	0.12        	nd_wd_summer_break	;
 JT_0D_006       	0           	0.12        	nd_wd_summer_break	;
 JT_0D_007       	0           	0.12        	nd_wd_summer_break	;
 JT_0D_008       	0           	0.12        	nd_wd_summer_break	;
 JT_0D_009       	0           	0.12        	nd_wd_summer_break	;
 JT_0D_010       	0           	0.12        	nd_wd_summer_break	;
 JT_0D_011       	0           	0.12        	nd_wd_summer_break	;
 JT_0E_001       	0           	0.12        	nd_wd_summer_break	;
 JT_0E_002       	0           	0.12        	nd_wd_summer_break	;
 JT_0E_003       	0           	0.12        	nd_wd_summer_break	;
 JT_0E_004       	0           	0.12        	nd_wd_summer_break	;
 JT_0E_005       	0           	0.12        	nd_wd_summer_break	;
 JT_0E_006       	0           	0.12        	nd_wd_summer_break	;
 JT_0E_007       	0           	0.12        	nd_wd_summer_break	;
 JT_0E_008       	0           	0.12        	nd_wd_summer_break	;
 JT_0E_009       	0           	0.12        	nd_wd_summer_break	;
 JT_0E_010       	0           	0.12        	nd_wd_summer_break	;
 JT_0E_011       	0           	0.12        	nd_wd_summer_break	;
 JT_0F_001       	0           	0.12        	nd_wd_summer_break	;
 JT_0F_002       	0           	0.12        	nd_wd_summer_break	;
 JT_0F_003       	0           	0.12        	nd_wd_summer_break	;
 JT_0F_004       	0           	0.12        	nd_wd_summer_break	;
 JT_0F_005       	0           	0.12        	nd_wd_summer_break	;
 JT_0F_006       	0           	0.12        	nd_wd_summer_break	;
 JT_0F_007       	0           	0.12        	nd_wd_summer_break	;
 JT_0F_008       	0           	0.12        	nd_wd_summer_break	;
 JT_0F_009       	0           	0.12        	nd_wd_summer_break	;
 JT_0F_010       	0           	0.12        	nd_wd_summer_break	;
 JT_0F_011       	0           	0.12        	nd_wd_summer_break	;
 JT_0G_001       	0           	0.12        	nd_wd_summer_break	;
 JT_0G_002       	0           	0.12        	nd_wd_summer_break	;
 JT_0G_003       	0           	0.12        	nd_wd_summer_break	;
 JT_0G_004       	0           	0.12        	nd_wd_summer_break	;
 JT_0G_005       	0           	0.12        	nd_wd_summer_break	;
 JT_0G_006       	0           	0.12        	nd_wd_summer_break	;
 JT_0G_007       	0           	0.12        	nd_wd_summer_break	;
 JT_0G_008       	0           	0.12        	nd_wd_summer_break	;
 JT_0G_009       	0           	0.12        	nd_wd_summer_break	;
 JT_0G_010       	0           	0.12        	nd_wd_summer_break	;
 JT_0G_011       	0           	0.12        	nd_wd_summer_break	;
 JT_0H_001       	0           	0.12        	nd_wd_summer_break	;
 JT_0H_002       	0           	0.12        	nd_wd_summer_break	;
 JT_0H_003       	0           	0.12        	nd_wd_summer_break	;
 JT_0H_004       	0           	0.12        	nd_wd_summer_break	;
 JT_0H_005       	0           	0.12        	nd_wd_summer_break	;
 JT_0H_006       	0           	0.12        	nd_wd_summer_break	;
 JT_0H_007       	0           	0.12        	nd_wd_summer_break	;
 JT_0H_008       	0           	0.12        	nd_wd_summer_break	;
 JT_0H_009       	0           	0.12        	nd_wd_summer_break	;
 JT_0H_010       	0           	0.12        	nd_wd_summer_break	;
 JT_0H_011       	0           	0.12        	nd_wd_summer_break	;
 JT_0I_001       	0           	0.12        	nd_wd_summer_break	;
 JT_0I_002       	0           	0.12        	nd_wd_summer_break	;
 JT_0I_003       	0           	0.12        	nd_wd_summer_break	;
 JT_0I_004       	0           	0.12        	nd_wd_summer_break	;
 JT_0I_005       	0           	0.12        	nd_wd_summer_break	;
 JT_0I_006       	0           	0.12        	nd_wd_summer_break	;
 JT_0I_007       	0           	0.12        	nd_wd_summer_break	;
 JT_0I_008       	0           	0.12        	nd_wd_summer_break	;
 JT_0I_009       	0           	0.12        	nd_wd_summer_break	;
 JT_0I_010       	0           	0.12        	nd_wd_summer_break	;
 JT_0I_011       	0           	0.12        	nd_wd_summer_break	;
 JT_0J_001       	0           	0.12        	nd_wd_summer_break	;
 JT_0J_002       	0           	0.12        	nd_wd_summer_break	;
 JT_0J_003       	0           	0.12        	nd_wd_summer_break	;
 JT_0J_004       	0           	0.12        	nd_wd_summer_break	;
 JT_0J_005       	0           	0.12        	nd_wd_summer_break	;
 JT_0J_006       	0           	0.12        	nd_wd_summer_break	;
 JT_0J_007       	0           	0.12        	nd_wd_summer_break	;
 JT_0J_008       	0           	0.12        	nd_wd_summer_break	;
 JT_0J_009       	0           	0.12        	nd_wd_summer_break	;
 JT_0J_010       	0           	0.12        	nd_wd_summer_break	;
 JT_0J_011       	0           	0.12        	nd_wd_summer_break	;
 JT_0K_001       	0           	0.12        	nd_wd_summer_break	;
 JT_0K_002       	0           	0.12        	nd_wd_summer_break	;
 JT_0K_003       	0           	0.12        	nd_wd_summer_break	;
 JT_0K_004       	0           	0.12        	nd_wd_summer_break	;
 JT_0K_005       	0           	0.12        	nd_wd_summer_break	;
 JT_0K_006       	0           	0.12        	nd_wd_summer_break	;
 JT_0K_007       	0           	0.12        	nd_wd_summer_break	;
 JT_0K_008       	0           	0.12        	nd_wd_summer_break	;
 JT_0K_009       	0           	0.12        	nd_wd_summer_break	;
 JT_0K_010       	0           	0.12        	nd_wd_summer_break	;
 JT_0K_011       	0           	0.12        	nd_wd_summer_break	;

[RESERVOIRS]
;ID              	Head        	Pattern         
 RS0001          	50          	                	;

[TANKS]
;ID              	Elevation   	InitLevel   	MinLevel    	MaxLevel    	Diameter    	MinVol      	VolCurve

[PIPES]
;ID              	Node1           	Node2           	Length      	Diameter    	Roughness   	MinorLoss   	Status
 PS_0A_001       	JT_0A_001       	JT_0A_002       	100         	100         	0.05        	0           	Open  	;
 PS_0A_002       	JT_0A_002       	JT_0A_003       	100         	100         	0.05        	0           	Open  	;
 PS_0A_003       	JT_0A_003       	JT_0A_004       	100         	100         	0.05        	0           	Open  	;
 PS_0A_004       	JT_0A_004       	JT_0A_005       	100         	100         	0.05        	0           	Open  	;
 PS_0A_005       	JT_0A_005       	JT_0A_006       	100         	100         	0.05        	0           	Open  	;
 PS_0A_006       	JT_0A_006       	JT_0A_007       	100         	100         	0.05        	0           	Open  	;
 PS_0A_007       	JT_0A_007       	JT_0A_008       	100         	100         	0.05        	0           	Open  	;
 PS_0A_008       	JT_0A_008       	JT_0A_009       	100         	100         	0.05        	0           	Open  	;
 PS_0A_009       	JT_0A_009       	JT_0A_010       	100         	100         	0.05        	0           	Open  	;
 PS_0B_001       	JT_0B_001       	JT_0B_002       	100         	100         	0.05        	0           	Open  	;
 PS_0B_002       	JT_0B_002       	JT_0B_003       	100         	100         	0.05        	0           	Open  	;
 PS_0B_003       	JT_0B_003       	JT_0B_004       	100         	100         	0.05        	0           	Open  	;
 PS_0B_004       	JT_0B_004       	JT_0B_005       	100         	100         	0.05        	0           	Open  	;
 PS_0B_005       	JT_0B_005       	JT_0B_006       	100         	100         	0.05        	0           	Open  	;
 PS_0B_006       	JT_0B_006       	JT_0B_007       	100         	100         	0.05        	0           	Open  	;
 PS_0B_007       	JT_0B_007       	JT_0B_008       	100         	100         	0.05        	0           	Open  	;
 PS_0B_008       	JT_0B_008       	JT_0B_009       	100         	100         	0.05        	0           	Open  	;
 PS_0B_009       	JT_0B_009       	JT_0B_010       	100         	100         	0.05        	0           	Open  	;
 PS_0C_001       	JT_0C_001       	JT_0C_002       	100         	100         	0.05        	0           	Open  	;
 PS_0C_002       	JT_0C_002       	JT_0C_003       	100         	100         	0.05        	0           	Open  	;
 PS_0C_003       	JT_0C_003       	JT_0C_004       	100         	100         	0.05        	0           	Open  	;
 PS_0C_004       	JT_0C_004       	JT_0C_005       	100         	100         	0.05        	0           	Open  	;
 PS_0C_005       	JT_0C_005       	JT_0C_006       	100         	100         	0.05        	0           	Open  	;
 PS_0C_006       	JT_0C_006       	JT_0C_007       	100         	100         	0.05        	0           	Open  	;
 PS_0C_007       	JT_0C_007       	JT_0C_008       	100         	100         	0.05        	0           	Open  	;
 PS_0C_008       	JT_0C_008       	JT_0C_009       	100         	100         	0.05        	0           	Open  	;
 PS_0C_009       	JT_0C_009       	JT_0C_010       	100         	100         	0.05        	0           	Open  	;
 PS_0D_001       	JT_0D_001       	JT_0D_002       	100         	100         	0.05        	0           	Open  	;
 PS_0D_002       	JT_0D_002       	JT_0D_003       	100         	100         	0.05        	0           	Open  	;
 PS_0D_003       	JT_0D_003       	JT_0D_004       	100         	100         	0.05        	0           	Open  	;
 PS_0D_004       	JT_0D_004       	JT_0D_005       	100         	100         	0.05        	0           	Open  	;
 PS_0D_005       	JT_0D_005       	JT_0D_006       	100         	100         	0.05        	0           	Open  	;
 PS_0D_006       	JT_0D_006       	JT_0D_007       	100         	100         	0.05        	0           	Open  	;
 PS_0D_007       	JT_0D_007       	JT_0D_008       	100         	100         	0.05        	0           	Open  	;
 PS_0D_008       	JT_0D_008       	JT_0D_009       	100         	100         	0.05        	0           	Open  	;
 PS_0D_009       	JT_0D_009       	JT_0D_010       	100         	100         	0.05        	0           	Open  	;
 PS_0E_001       	JT_0E_001       	JT_0E_002       	100         	100         	0.05        	0           	Open  	;
 PS_0E_002       	JT_0E_002       	JT_0E_003       	100         	100         	0.05        	0           	Open  	;
 PS_0E_003       	JT_0E_003       	JT_0E_004       	100         	100         	0.05        	0           	Open  	;
 PS_0E_004       	JT_0E_004       	JT_0E_005       	100         	100         	0.05        	0           	Open  	;
 PS_0E_005       	JT_0E_005       	JT_0E_006       	100         	100         	0.05        	0           	Open  	;
 PS_0E_006       	JT_0E_006       	JT_0E_007       	100         	100         	0.05        	0           	Open  	;
 PS_0E_007       	JT_0E_007       	JT_0E_008       	100         	100         	0.05        	0           	Open  	;
 PS_0E_008       	JT_0E_008       	JT_0E_009       	100         	100         	0.05        	0           	Open  	;
 PS_0E_009       	JT_0E_009       	JT_0E_010       	100         	100         	0.05        	0           	Open  	;
 PS_0F_001       	JT_0F_001       	JT_0F_002       	100         	100         	0.05        	0           	Open  	;
 PS_0F_002       	JT_0F_002       	JT_0F_003       	100         	100         	0.05        	0           	Open  	;
 PS_0F_003       	JT_0F_003       	JT_0F_004       	100         	100         	0.05        	0           	Open  	;
 PS_0F_004       	JT_0F_004       	JT_0F_005       	100         	100         	0.05        	0           	Open  	;
 PS_0F_005       	JT_0F_005       	JT_0F_006       	100         	100         	0.05        	0           	Open  	;
 PS_0F_006       	JT_0F_006       	JT_0F_007       	100         	100         	0.05        	0           	Open  	;
 PS_0F_007       	JT_0F_007       	JT_0F_008       	100         	100         	0.05        	0           	Open  	;
 PS_0F_008       	JT_0F_008       	JT_0F_009       	100         	100         	0.05        	0           	Open  	;
 PS_0F_009       	JT_0F_009       	JT_0F_010       	100         	100         	0.05        	0           	Open  	;
 PS_0G_001       	JT_0G_001       	JT_0G_002       	100         	100         	0.05        	0           	Open  	;
 PS_0G_002       	JT_0G_002       	JT_0G_003       	100         	100         	0.05        	0           	Open  	;
 PS_0G_003       	JT_0G_003       	JT_0G_004       	100         	100         	0.05        	0           	Open  	;
 PS_0G_004       	JT_0G_004       	JT_0G_005       	100         	100         	0.05        	0           	Open  	;
 PS_0G_005       	JT_0G_005       	JT_0G_006       	100         	100         	0.05        	0           	Open  	;
 PS_0G_006       	JT_0G_006       	JT_0G_007       	100         	100         	0.05        	0           	Open  	;
 PS_0G_007       	JT_0G_007       	JT_0G_008       	100         	100         	0.05        	0           	Open  	;
 PS_0G_008       	JT_0G_008       	JT_0G_009       	100         	100         	0.05        	0           	Open  	;
 PS_0G_009       	JT_0G_009       	JT_0G_010       	100         	100         	0.05        	0           	Open  	;
 PS_0H_001       	JT_0H_001       	JT_0H_002       	100         	100         	0.05        	0           	Open  	;
 PS_0H_002       	JT_0H_002       	JT_0H_003       	100         	100         	0.05        	0           	Open  	;
 PS_0H_003       	JT_0H_003       	JT_0H_004       	100         	100         	0.05        	0           	Open  	;
 PS_0H_004       	JT_0H_004       	JT_0H_005       	100         	100         	0.05        	0           	Open  	;
 PS_0H_005       	JT_0H_005       	JT_0H_006       	100         	100         	0.05        	0           	Open  	;
 PS_0H_006       	JT_0H_006       	JT_0H_007       	100         	100         	0.05        	0           	Open  	;
 PS_0H_007       	JT_0H_007       	JT_0H_008       	100         	100         	0.05        	0           	Open  	;
 PS_0H_008       	JT_0H_008       	JT_0H_009       	100         	100         	0.05        	0           	Open  	;
 PS_0H_009       	JT_0H_009       	JT_0H_010       	100         	100         	0.05        	0           	Open  	;
 PS_0I_001       	JT_0I_001       	JT_0I_002       	100         	100         	0.05        	0           	Open  	;
 PS_0I_002       	JT_0I_002       	JT_0I_003       	100         	100         	0.05        	0           	Open  	;
 PS_0I_003       	JT_0I_003       	JT_0I_004       	100         	100         	0.05        	0           	Open  	;
 PS_0I_004       	JT_0I_004       	JT_0I_005       	100         	100         	0.05        	0           	Open  	;
 PS_0I_005       	JT_0I_005       	JT_0I_006       	100         	100         	0.05        	0           	Open  	;
 PS_0I_006       	JT_0I_006       	JT_0I_007       	100         	100         	0.05        	0           	Open  	;
 PS_0I_007       	JT_0I_007       	JT_0I_008       	100         	100         	0.05        	0           	Open  	;
 PS_0I_008       	JT_0I_008       	JT_0I_009       	100         	100         	0.05        	0           	Open  	;
 PS_0I_009       	JT_0I_009       	JT_0I_010       	100         	100         	0.05        	0           	Open  	;
 PS_0J_001       	JT_0J_001       	JT_0J_002       	100         	100         	0.05        	0           	Open  	;
 PS_0J_002       	JT_0J_002       	JT_0J_003       	100         	100         	0.05        	0           	Open  	;
 PS_0J_003       	JT_0J_003       	JT_0J_004       	100         	100         	0.05        	0           	Open  	;
 PS_0J_004       	JT_0J_004       	JT_0J_005       	100         	100         	0.05        	0           	Open  	;
 PS_0J_005       	JT_0J_005       	JT_0J_006       	100         	100         	0.05        	0           	Open  	;
 PS_0J_006       	JT_0J_006       	JT_0J_007       	100         	100         	0.05        	0           	Open  	;
 PS_0J_007       	JT_0J_007       	JT_0J_008       	100         	100         	0.05        	0           	Open  	;
 PS_0J_008       	JT_0J_008       	JT_0J_009       	100         	100         	0.05        	0           	Open  	;
 PS_0J_009       	JT_0J_009       	JT_0J_010       	100         	100         	0.05        	0           	Open  	;
 PS_01_001       	JT_0A_001       	JT_0B_001       	100         	100         	0.05        	0           	Open  	;
 PS_01_002       	JT_0B_001       	JT_0C_001       	100         	100         	0.05        	0           	Open  	;
 PS_01_003       	JT_0C_001       	JT_0D_001       	100         	100         	0.05        	0           	Open  	;
 PS_01_004       	JT_0D_001       	JT_0E_001       	100         	100         	0.05        	0           	Open  	;
 PS_01_005       	JT_0E_001       	JT_0F_001       	100         	100         	0.05        	0           	Open  	;
 PS_01_006       	JT_0F_001       	JT_0G_001       	100         	100         	0.05        	0           	Open  	;
 PS_01_007       	JT_0G_001       	JT_0H_001       	100         	100         	0.05        	0           	Open  	;
 PS_01_008       	JT_0H_001       	JT_0I_001       	100         	100         	0.05        	0           	Open  	;
 PS_01_009       	JT_0I_001       	JT_0J_001       	100         	100         	0.05        	0           	Open  	;
 PS_02_001       	JT_0A_002       	JT_0B_002       	100         	100         	0.05        	0           	Open  	;
 PS_02_002       	JT_0B_002       	JT_0C_002       	100         	100         	0.05        	0           	Open  	;
 PS_02_003       	JT_0C_002       	JT_0D_002       	100         	100         	0.05        	0           	Open  	;
 PS_02_004       	JT_0D_002       	JT_0E_002       	100         	100         	0.05        	0           	Open  	;
 PS_02_005       	JT_0E_002       	JT_0F_002       	100         	100         	0.05        	0           	Open  	;
 PS_02_006       	JT_0F_002       	JT_0G_002       	100         	100         	0.05        	0           	Open  	;
 PS_02_007       	JT_0G_002       	JT_0H_002       	100         	100         	0.05        	0           	Open  	;
 PS_02_008       	JT_0H_002       	JT_0I_002       	100         	100         	0.05        	0           	Open  	;
 PS_02_009       	JT_0I_002       	JT_0J_002       	100         	100         	0.05        	0           	Open  	;
 PS_03_001       	JT_0A_003       	JT_0B_003       	100         	100         	0.05        	0           	Open  	;
 PS_03_002       	JT_0B_003       	JT_0C_003       	100         	100         	0.05        	0           	Open  	;
 PS_03_003       	JT_0C_003       	JT_0D_003       	100         	100         	0.05        	0           	Open  	;
 PS_03_004       	JT_0D_003       	JT_0E_003       	100         	100         	0.05        	0           	Open  	;
 PS_03_005       	JT_0E_003       	JT_0F_003       	100         	100         	0.05        	0           	Open  	;
 PS_03_006       	JT_0F_003       	JT_0G_003       	100         	100         	0.05        	0           	Open  	;
 PS_03_007       	JT_0G_003       	JT_0H_003       	100         	100         	0.05        	0           	Open  	;
 PS_03_008       	JT_0H_003       	JT_0I_003       	100         	100         	0.05        	0           	Open  	;
 PS_03_009       	JT_0I_003       	JT_0J_003       	100         	100         	0.05        	0           	Open  	;
 PS_04_001       	JT_0A_004       	JT_0B_004       	100         	100         	0.05        	0           	Open  	;
 PS_04_002       	JT_0B_004       	JT_0C_004       	100         	100         	0.05        	0           	Open  	;
 PS_04_003       	JT_0C_004       	JT_0D_004       	100         	100         	0.05        	0           	Open  	;
 PS_04_004       	JT_0D_004       	JT_0E_004       	100         	100         	0.05        	0           	Open  	;
 PS_04_005       	JT_0E_004       	JT_0F_004       	100         	100         	0.05        	0           	Open  	;
 PS_04_006       	JT_0F_004       	JT_0G_004       	100         	100         	0.05        	0           	Open  	;
 PS_04_007       	JT_0G_004       	JT_0H_004       	100         	100         	0.05        	0           	Open  	;
 PS_04_008       	JT_0H_004       	JT_0I_004       	100         	100         	0.05        	0           	Open  	;
 PS_04_009       	JT_0I_004       	JT_0J_004       	100         	100         	0.05        	0           	Open  	;
 PS_05_001       	JT_0A_005       	JT_0B_005       	100         	100         	0.05        	0           	Open  	;
 PS_05_002       	JT_0B_005       	JT_0C_005       	100         	100         	0.05        	0           	Open  	;
 PS_05_003       	JT_0C_005       	JT_0D_005       	100         	100         	0.05        	0           	Open  	;
 PS_05_004       	JT_0D_005       	JT_0E_005       	100         	100         	0.05        	0           	Open  	;
 PS_05_005       	JT_0E_005       	JT_0F_005       	100         	100         	0.05        	0           	Open  	;
 PS_05_006       	JT_0F_005       	JT_0G_005       	100         	100         	0.05        	0           	Open  	;
 PS_05_007       	JT_0G_005       	JT_0H_005       	100         	100         	0.05        	0           	Open  	;
 PS_05_008       	JT_0H_005       	JT_0I_005       	100         	100         	0.05        	0           	Open  	;
 PS_05_009       	JT_0I_005       	JT_0J_005       	100         	100         	0.05        	0           	Open  	;
 PS_06_001       	JT_0A_006       	JT_0B_006       	100         	100         	0.05        	0           	Open  	;
 PS_06_002       	JT_0B_006       	JT_0C_006       	100         	100         	0.05        	0           	Open  	;
 PS_06_003       	JT_0C_006       	JT_0D_006       	100         	100         	0.05        	0           	Open  	;
 PS_06_004       	JT_0D_006       	JT_0E_006       	100         	100         	0.05        	0           	Open  	;
 PS_06_005       	JT_0E_006       	JT_0F_006       	100         	100         	0.05        	0           	Open  	;
 PS_06_006       	JT_0F_006       	JT_0G_006       	100         	100         	0.05        	0           	Open  	;
 PS_06_007       	JT_0G_006       	JT_0H_006       	100         	100         	0.05        	0           	Open  	;
 PS_06_008       	JT_0H_006       	JT_0I_006       	100         	100         	0.05        	0           	Open  	;
 PS_06_009       	JT_0I_006       	JT_0J_006       	100         	100         	0.05        	0           	Open  	;
 PS_07_001       	JT_0A_007       	JT_0B_007       	100         	100         	0.05        	0           	Open  	;
 PS_07_002       	JT_0B_007       	JT_0C_007       	100         	100         	0.05        	0           	Open  	;
 PS_07_003       	JT_0C_007       	JT_0D_007       	100         	100         	0.05        	0           	Open  	;
 PS_07_004       	JT_0D_007       	JT_0E_007       	100         	100         	0.05        	0           	Open  	;
 PS_07_005       	JT_0E_007       	JT_0F_007       	100         	100         	0.05        	0           	Open  	;
 PS_07_006       	JT_0F_007       	JT_0G_007       	100         	100         	0.05        	0           	Open  	;
 PS_07_007       	JT_0G_007       	JT_0H_007       	100         	100         	0.05        	0           	Open  	;
 PS_07_008       	JT_0H_007       	JT_0I_007       	100         	100         	0.05        	0           	Open  	;
 PS_07_009       	JT_0I_007       	JT_0J_007       	100         	100         	0.05        	0           	Open  	;
 PS_08_001       	JT_0A_008       	JT_0B_008       	100         	100         	0.05        	0           	Open  	;
 PS_08_002       	JT_0B_008       	JT_0C_008       	100         	100         	0.05        	0           	Open  	;
 PS_08_003       	JT_0C_008       	JT_0D_008       	100         	100         	0.05        	0           	Open  	;
 PS_08_004       	JT_0D_008       	JT_0E_008       	100         	100         	0.05        	0           	Open  	;
 PS_08_005       	JT_0E_008       	JT_0F_008       	100         	100         	0.05        	0           	Open  	;
 PS_08_006       	JT_0F_008       	JT_0G_008       	100         	100         	0.05        	0           	Open  	;
 PS_08_007       	JT_0G_008       	JT_0H_008       	100         	100         	0.05        	0           	Open  	;
 PS_08_008       	JT_0H_008       	JT_0I_008       	100         	100         	0.05        	0           	Open  	;
 PS_08_009       	JT_0I_008       	JT_0J_008       	100         	100         	0.05        	0           	Open  	;
 PS_09_001       	JT_0A_009       	JT_0B_009       	100         	100         	0.05        	0           	Open  	;
 PS_09_002       	JT_0B_009       	JT_0C_009       	100         	100         	0.05        	0           	Open  	;
 PS_09_003       	JT_0C_009       	JT_0D_009       	100         	100         	0.05        	0           	Open  	;
 PS_09_004       	JT_0D_009       	JT_0E_009       	100         	100         	0.05        	0           	Open  	;
 PS_09_005       	JT_0E_009       	JT_0F_009       	100         	100         	0.05        	0           	Open  	;
 PS_09_006       	JT_0F_009       	JT_0G_009       	100         	100         	0.05        	0           	Open  	;
 PS_09_007       	JT_0G_009       	JT_0H_009       	100         	100         	0.05        	0           	Open  	;
 PS_09_008       	JT_0H_009       	JT_0I_009       	100         	100         	0.05        	0           	Open  	;
 PS_09_009       	JT_0I_009       	JT_0J_009       	100         	100         	0.05        	0           	Open  	;
 PS_10_001       	JT_0A_010       	JT_0B_010       	100         	100         	0.05        	0           	Open  	;
 PS_10_002       	JT_0B_010       	JT_0C_010       	100         	100         	0.05        	0           	Open  	;
 PS_10_003       	JT_0C_010       	JT_0D_010       	100         	100         	0.05        	0           	Open  	;
 PS_10_004       	JT_0D_010       	JT_0E_010       	100         	100         	0.05        	0           	Open  	;
 PS_10_005       	JT_0E_010       	JT_0F_010       	100         	100         	0.05        	0           	Open  	;
 PS_10_006       	JT_0F_010       	JT_0G_010       	100         	100         	0.05        	0           	Open  	;
 PS_10_007       	JT_0G_010       	JT_0H_010       	100         	100         	0.05        	0           	Open  	;
 PS_10_008       	JT_0H_010       	JT_0I_010       	100         	100         	0.05        	0           	Open  	;
 PS_10_009       	JT_0I_010       	JT_0J_010       	100         	100         	0.05        	0           	Open  	;
 PS_01_010       	JT_0J_001       	JT_0K_001       	100         	100         	0.05        	0           	Open  	;
 PS_02_010       	JT_0J_002       	JT_0K_002       	100         	100         	0.05        	0           	Open  	;
 PS_03_010       	JT_0J_003       	JT_0K_003       	100         	100         	0.05        	0           	Open  	;
 PS_04_010       	JT_0J_004       	JT_0K_004       	100         	100         	0.05        	0           	Open  	;
 PS_05_010       	JT_0J_005       	JT_0K_005       	100         	100         	0.05        	0           	Open  	;
 PS_06_010       	JT_0J_006       	JT_0K_006       	100         	100         	0.05        	0           	Open  	;
 PS_07_010       	JT_0J_007       	JT_0K_007       	100         	100         	0.05        	0           	Open  	;
 PS_08_010       	JT_0J_008       	JT_0K_008       	100         	100         	0.05        	0           	Open  	;
 PS_09_010       	JT_0J_009       	JT_0K_009       	100         	100         	0.05        	0           	Open  	;
 PS_10_010       	JT_0J_010       	JT_0K_010       	100         	100         	0.05        	0           	Open  	;
 PS_11_010       	JT_0J_011       	JT_0K_011       	100         	100         	0.05        	0           	Open  	;